
 OpenBabel01092517223D

 20 19  0  0  0  0  0  0  0  0999 V2000
    2.9654   -0.9594    1.1438 C   0  0  0  0  0  0  0  0  0  0  0  0
    2.4484   -0.0955   -0.0114 C   0  0  0  0  0  0  0  0  0  0  0  0
    2.9597   -0.5786   -1.3854 C   0  0  0  0  0  0  0  0  0  0  0  0
    2.4963   -2.0148   -1.6340 C   0  0  0  0  0  0  0  0  0  0  0  0
    2.7695   -2.4683   -1.0808 R#  0  0  0  0  0  0  0  0  0  0  0  0
    2.4263    0.3538   -2.4751 C   0  0  0  0  0  0  0  0  0  0  0  0
    2.6707    1.0671   -2.3408 R#  0  0  0  0  0  0  0  0  0  0  0  0
    4.4871   -0.5623   -1.4054 C   0  0  0  0  0  0  0  0  0  0  0  0
    4.7525   -1.0256   -0.8563 R#  0  0  0  0  0  0  0  0  0  0  0  0
    2.5521   -0.5912    2.1051 H   0  0  0  0  0  0  0  0  0  0  0  0
    4.0735   -0.9146    1.1995 H   0  0  0  0  0  0  0  0  0  0  0  0
    2.6537   -2.0157    1.0028 H   0  0  0  0  0  0  0  0  0  0  0  0
    2.7639    0.9584    0.1605 H   0  0  0  0  0  0  0  0  0  0  0  0
    1.3357   -0.1206   -0.0004 H   0  0  0  0  0  0  0  0  0  0  0  0
    2.8614   -2.3743   -2.6195 H   0  0  0  0  0  0  0  0  0  0  0  0
    1.3865   -2.0723   -1.6432 H   0  0  0  0  0  0  0  0  0  0  0  0
    1.3146    0.3405   -2.4864 H   0  0  0  0  0  0  0  0  0  0  0  0
    2.7840    0.0231   -3.4739 H   0  0  0  0  0  0  0  0  0  0  0  0
    4.8664    0.4677   -1.2338 H   0  0  0  0  0  0  0  0  0  0  0  0
    4.8650   -0.9062   -2.3929 H   0  0  0  0  0  0  0  0  0  0  0  0
  1  2  1  0  0  0  0
  1 10  1  0  0  0  0
  1 11  1  0  0  0  0
  1 12  1  0  0  0  0
  2  3  1  0  0  0  0
  2 13  1  0  0  0  0
  2 14  1  0  0  0  0
  3  4  1  0  0  0  0
  3  6  1  0  0  0  0
  3  8  1  0  0  0  0
  4  5  1  0  0  0  0
  4 15  1  0  0  0  0
  4 16  1  0  0  0  0
  6  7  1  0  0  0  0
  6 17  1  0  0  0  0
  6 18  1  0  0  0  0
  8  9  1  0  0  0  0
  8 19  1  0  0  0  0
  8 20  1  0  0  0  0
M  RGP  3   5   6   7   9   9  10
M  END
$$$$

